Hospital-Smart-Bracelet
*SPICE Netlist generated by Advanced Sim server on 5/28/2020 4:17:46 PM

*Schematic Netlist:

.SAVE 0


*Selected Circuit Analyses:
.TRAN 2E-8 5E-6 0 2E-8
.OP

.END
